369
Ti O2 final maximum radius 10.8849
 O    5.6763   -7.5684    5.1558
 O    5.6763    7.5684    5.1558
 O   -3.7842    9.4605    0.3985
 O   -3.7842   -9.4605    0.3985
 O   -5.6763    7.5684    5.1558
 O   -5.6763   -7.5684    5.1558
 O    3.7842   -9.4605    0.3985
 O    3.7842    9.4605    0.3985
 O    0.0000    1.8921    9.9131
 O    0.0000   -1.8921    9.9131
 O   -9.4605    1.8921   -2.7772
 O   -9.4605   -1.8921   -2.7772
 O   -7.5684    7.5684    1.9799
 O    9.4605    3.7842   -0.3986
 O   -9.4605    3.7842   -0.3986
 O    9.4605   -3.7842   -0.3986
 O   -7.5684   -7.5684    1.9799
 O    7.5684    7.5684    1.9799
Ti   -9.4605   -0.0000   -2.3786
 O   -9.4605    0.0000   -0.3986
 O   -7.5684   -5.6763    0.3985
Ti   -7.5684   -5.6763    2.3785
 O   -7.5684   -3.7842   -1.9799
Ti   -7.5684   -3.7842    0.0000
 O   -7.5684   -3.7842    1.9799
 O   -7.5684   -1.8921   -5.1559
 O   -7.5684   -1.8921    0.3985
Ti   -7.5684   -1.8921    2.3785
 O   -7.5684   -1.8921    4.3586
 O   -7.5684    0.0000   -1.9799
Ti   -7.5684    0.0000    0.0000
 O   -7.5684    0.0000    1.9799
 O   -7.5684    1.8921   -5.1559
 O   -7.5684    1.8921    0.3985
Ti   -7.5684    1.8921    2.3785
 O   -7.5684    1.8921    4.3586
 O   -7.5684    3.7842   -1.9799
Ti   -7.5684    3.7842    0.0000
 O   -7.5684    3.7842    1.9799
 O   -7.5684    5.6763    0.3985
Ti   -7.5684    5.6763    2.3785
Ti   -5.6763   -7.5684   -2.3785
 O   -5.6763   -7.5684   -0.3986
Ti   -5.6763   -5.6763   -4.7573
 O   -5.6763   -5.6763   -2.7772
 O   -5.6763   -5.6763    2.7772
Ti   -5.6763   -5.6763    4.7573
 O   -5.6763   -3.7842   -4.3586
Ti   -5.6763   -3.7842   -2.3785
 O   -5.6763   -3.7842   -0.3986
 O   -5.6763   -3.7842    5.1558
Ti   -5.6763   -3.7842    7.1359
 O   -5.6763   -1.8921   -6.7373
Ti   -5.6763   -1.8921   -4.7573
 O   -5.6763   -1.8921   -2.7772
 O   -5.6763   -1.8921    2.7772
Ti   -5.6763   -1.8921    4.7573
 O   -5.6763   -1.8921    6.7372
 O   -5.6763    0.0000   -4.3586
Ti   -5.6763    0.0000   -2.3785
 O   -5.6763    0.0000   -0.3986
 O   -5.6763    0.0000    5.1558
Ti   -5.6763    0.0000    7.1359
 O   -5.6763    1.8921   -6.7373
Ti   -5.6763    1.8921   -4.7573
 O   -5.6763    1.8921   -2.7772
 O   -5.6763    1.8921    2.7772
Ti   -5.6763    1.8921    4.7573
 O   -5.6763    1.8921    6.7372
 O   -5.6763    3.7842   -4.3586
Ti   -5.6763    3.7842   -2.3785
 O   -5.6763    3.7842   -0.3986
 O   -5.6763    3.7842    5.1558
Ti   -5.6763    3.7842    7.1359
Ti   -5.6763    5.6763   -4.7573
 O   -5.6763    5.6763   -2.7772
 O   -5.6763    5.6763    2.7772
Ti   -5.6763    5.6763    4.7573
Ti   -5.6763    7.5684   -2.3785
 O   -5.6763    7.5684   -0.3986
 O   -3.7842   -7.5684   -1.9799
Ti   -3.7842   -7.5684    0.0000
 O   -3.7842   -7.5684    1.9799
Ti   -3.7842   -5.6763   -7.1359
 O   -3.7842   -5.6763   -5.1559
 O   -3.7842   -5.6763    0.3985
Ti   -3.7842   -5.6763    2.3785
 O   -3.7842   -5.6763    4.3586
 O   -3.7842   -3.7842   -7.5346
 O   -3.7842   -3.7842   -1.9799
Ti   -3.7842   -3.7842    0.0000
 O   -3.7842   -3.7842    1.9799
 O   -3.7842   -3.7842    7.5346
Ti   -3.7842   -1.8921   -7.1359
 O   -3.7842   -1.8921   -5.1559
 O   -3.7842   -1.8921    0.3985
Ti   -3.7842   -1.8921    2.3785
 O   -3.7842   -1.8921    4.3586
 O   -3.7842    0.0000   -7.5346
 O   -3.7842    0.0000   -1.9799
Ti   -3.7842    0.0000    0.0000
 O   -3.7842    0.0000    1.9799
 O   -3.7842    0.0000    7.5346
Ti   -3.7842    1.8921   -7.1359
 O   -3.7842    1.8921   -5.1559
 O   -3.7842    1.8921    0.3985
Ti   -3.7842    1.8921    2.3785
 O   -3.7842    1.8921    4.3586
 O   -3.7842    3.7842   -7.5346
 O   -3.7842    3.7842   -1.9799
Ti   -3.7842    3.7842    0.0000
 O   -3.7842    3.7842    1.9799
 O   -3.7842    3.7842    7.5346
Ti   -3.7842    5.6763   -7.1359
 O   -3.7842    5.6763   -5.1559
 O   -3.7842    5.6763    0.3985
Ti   -3.7842    5.6763    2.3785
 O   -3.7842    5.6763    4.3586
 O   -3.7842    7.5684   -1.9799
Ti   -3.7842    7.5684    0.0000
 O   -3.7842    7.5684    1.9799
 O   -1.8921   -7.5684   -4.3586
Ti   -1.8921   -7.5684   -2.3785
 O   -1.8921   -7.5684   -0.3986
 O   -1.8921   -7.5684    5.1558
 O   -1.8921   -5.6763   -6.7373
Ti   -1.8921   -5.6763   -4.7573
 O   -1.8921   -5.6763   -2.7772
 O   -1.8921   -5.6763    2.7772
Ti   -1.8921   -5.6763    4.7573
 O   -1.8921   -5.6763    6.7372
 O   -1.8921   -3.7842   -4.3586
Ti   -1.8921   -3.7842   -2.3785
 O   -1.8921   -3.7842   -0.3986
 O   -1.8921   -3.7842    5.1558
Ti   -1.8921   -3.7842    7.1359
 O   -1.8921   -1.8921   -6.7373
Ti   -1.8921   -1.8921   -4.7573
 O   -1.8921   -1.8921   -2.7772
 O   -1.8921   -1.8921    2.7772
Ti   -1.8921   -1.8921    4.7573
 O   -1.8921   -1.8921    6.7372
 O   -1.8921    0.0000   -4.3586
Ti   -1.8921    0.0000   -2.3785
 O   -1.8921    0.0000   -0.3986
 O   -1.8921    0.0000    5.1558
Ti   -1.8921    0.0000    7.1359
 O   -1.8921    0.0000    9.1159
 O   -1.8921    1.8921   -6.7373
Ti   -1.8921    1.8921   -4.7573
 O   -1.8921    1.8921   -2.7772
 O   -1.8921    1.8921    2.7772
Ti   -1.8921    1.8921    4.7573
 O   -1.8921    1.8921    6.7372
 O   -1.8921    3.7842   -4.3586
Ti   -1.8921    3.7842   -2.3785
 O   -1.8921    3.7842   -0.3986
 O   -1.8921    3.7842    5.1558
Ti   -1.8921    3.7842    7.1359
 O   -1.8921    5.6763   -6.7373
Ti   -1.8921    5.6763   -4.7573
 O   -1.8921    5.6763   -2.7772
 O   -1.8921    5.6763    2.7772
Ti   -1.8921    5.6763    4.7573
 O   -1.8921    5.6763    6.7372
 O   -1.8921    7.5684   -4.3586
Ti   -1.8921    7.5684   -2.3785
 O   -1.8921    7.5684   -0.3986
 O   -1.8921    7.5684    5.1558
 O    0.0000   -9.4605    0.3985
Ti    0.0000   -9.4605    2.3785
 O    0.0000   -7.5684   -1.9799
Ti    0.0000   -7.5684    0.0000
 O    0.0000   -7.5684    1.9799
Ti    0.0000   -5.6763   -7.1359
 O    0.0000   -5.6763   -5.1559
 O    0.0000   -5.6763    0.3985
Ti    0.0000   -5.6763    2.3785
 O    0.0000   -5.6763    4.3586
 O    0.0000   -3.7842   -7.5346
 O    0.0000   -3.7842   -1.9799
Ti    0.0000   -3.7842    0.0000
 O    0.0000   -3.7842    1.9799
 O    0.0000   -3.7842    7.5346
 O    0.0000   -1.8921   -9.1160
Ti    0.0000   -1.8921   -7.1359
 O    0.0000   -1.8921   -5.1559
 O    0.0000   -1.8921    0.3985
Ti    0.0000   -1.8921    2.3785
 O    0.0000   -1.8921    4.3586
Ti    0.0000    0.0000   -9.5146
 O    0.0000    0.0000   -7.5346
 O    0.0000    0.0000   -1.9799
Ti    0.0000    0.0000    0.0000
 O    0.0000    0.0000    1.9799
 O    0.0000    0.0000    7.5346
Ti    0.0000    0.0000    9.5146
 O    0.0000    1.8921   -9.1160
Ti    0.0000    1.8921   -7.1359
 O    0.0000    1.8921   -5.1559
 O    0.0000    1.8921    0.3985
Ti    0.0000    1.8921    2.3785
 O    0.0000    1.8921    4.3586
 O    0.0000    3.7842   -7.5346
 O    0.0000    3.7842   -1.9799
Ti    0.0000    3.7842    0.0000
 O    0.0000    3.7842    1.9799
 O    0.0000    3.7842    7.5346
Ti    0.0000    5.6763   -7.1359
 O    0.0000    5.6763   -5.1559
 O    0.0000    5.6763    0.3985
Ti    0.0000    5.6763    2.3785
 O    0.0000    5.6763    4.3586
 O    0.0000    7.5684   -1.9799
Ti    0.0000    7.5684    0.0000
 O    0.0000    7.5684    1.9799
 O    0.0000    9.4605    0.3985
Ti    0.0000    9.4605    2.3785
 O    1.8921   -7.5684   -4.3586
Ti    1.8921   -7.5684   -2.3785
 O    1.8921   -7.5684   -0.3986
 O    1.8921   -7.5684    5.1558
 O    1.8921   -5.6763   -6.7373
Ti    1.8921   -5.6763   -4.7573
 O    1.8921   -5.6763   -2.7772
 O    1.8921   -5.6763    2.7772
Ti    1.8921   -5.6763    4.7573
 O    1.8921   -5.6763    6.7372
 O    1.8921   -3.7842   -4.3586
Ti    1.8921   -3.7842   -2.3785
 O    1.8921   -3.7842   -0.3986
 O    1.8921   -3.7842    5.1558
Ti    1.8921   -3.7842    7.1359
 O    1.8921   -1.8921   -6.7373
Ti    1.8921   -1.8921   -4.7573
 O    1.8921   -1.8921   -2.7772
 O    1.8921   -1.8921    2.7772
Ti    1.8921   -1.8921    4.7573
 O    1.8921   -1.8921    6.7372
 O    1.8921    0.0000   -4.3586
Ti    1.8921    0.0000   -2.3785
 O    1.8921    0.0000   -0.3986
 O    1.8921    0.0000    5.1558
Ti    1.8921    0.0000    7.1359
 O    1.8921    0.0000    9.1159
 O    1.8921    1.8921   -6.7373
Ti    1.8921    1.8921   -4.7573
 O    1.8921    1.8921   -2.7772
 O    1.8921    1.8921    2.7772
Ti    1.8921    1.8921    4.7573
 O    1.8921    1.8921    6.7372
 O    1.8921    3.7842   -4.3586
Ti    1.8921    3.7842   -2.3785
 O    1.8921    3.7842   -0.3986
 O    1.8921    3.7842    5.1558
Ti    1.8921    3.7842    7.1359
 O    1.8921    5.6763   -6.7373
Ti    1.8921    5.6763   -4.7573
 O    1.8921    5.6763   -2.7772
 O    1.8921    5.6763    2.7772
Ti    1.8921    5.6763    4.7573
 O    1.8921    5.6763    6.7372
 O    1.8921    7.5684   -4.3586
Ti    1.8921    7.5684   -2.3785
 O    1.8921    7.5684   -0.3986
 O    1.8921    7.5684    5.1558
 O    3.7842   -7.5684   -1.9799
Ti    3.7842   -7.5684    0.0000
 O    3.7842   -7.5684    1.9799
Ti    3.7842   -5.6763   -7.1359
 O    3.7842   -5.6763   -5.1559
 O    3.7842   -5.6763    0.3985
Ti    3.7842   -5.6763    2.3785
 O    3.7842   -5.6763    4.3586
 O    3.7842   -3.7842   -7.5346
 O    3.7842   -3.7842   -1.9799
Ti    3.7842   -3.7842    0.0000
 O    3.7842   -3.7842    1.9799
 O    3.7842   -3.7842    7.5346
Ti    3.7842   -1.8921   -7.1359
 O    3.7842   -1.8921   -5.1559
 O    3.7842   -1.8921    0.3985
Ti    3.7842   -1.8921    2.3785
 O    3.7842   -1.8921    4.3586
 O    3.7842    0.0000   -7.5346
 O    3.7842    0.0000   -1.9799
Ti    3.7842    0.0000    0.0000
 O    3.7842    0.0000    1.9799
 O    3.7842    0.0000    7.5346
Ti    3.7842    1.8921   -7.1359
 O    3.7842    1.8921   -5.1559
 O    3.7842    1.8921    0.3985
Ti    3.7842    1.8921    2.3785
 O    3.7842    1.8921    4.3586
 O    3.7842    3.7842   -7.5346
 O    3.7842    3.7842   -1.9799
Ti    3.7842    3.7842    0.0000
 O    3.7842    3.7842    1.9799
 O    3.7842    3.7842    7.5346
Ti    3.7842    5.6763   -7.1359
 O    3.7842    5.6763   -5.1559
 O    3.7842    5.6763    0.3985
Ti    3.7842    5.6763    2.3785
 O    3.7842    5.6763    4.3586
 O    3.7842    7.5684   -1.9799
Ti    3.7842    7.5684    0.0000
 O    3.7842    7.5684    1.9799
Ti    5.6763   -7.5684   -2.3785
 O    5.6763   -7.5684   -0.3986
Ti    5.6763   -5.6763   -4.7573
 O    5.6763   -5.6763   -2.7772
 O    5.6763   -5.6763    2.7772
Ti    5.6763   -5.6763    4.7573
 O    5.6763   -3.7842   -4.3586
Ti    5.6763   -3.7842   -2.3785
 O    5.6763   -3.7842   -0.3986
 O    5.6763   -3.7842    5.1558
Ti    5.6763   -3.7842    7.1359
 O    5.6763   -1.8921   -6.7373
Ti    5.6763   -1.8921   -4.7573
 O    5.6763   -1.8921   -2.7772
 O    5.6763   -1.8921    2.7772
Ti    5.6763   -1.8921    4.7573
 O    5.6763   -1.8921    6.7372
 O    5.6763    0.0000   -4.3586
Ti    5.6763    0.0000   -2.3785
 O    5.6763    0.0000   -0.3986
 O    5.6763    0.0000    5.1558
Ti    5.6763    0.0000    7.1359
 O    5.6763    1.8921   -6.7373
Ti    5.6763    1.8921   -4.7573
 O    5.6763    1.8921   -2.7772
 O    5.6763    1.8921    2.7772
Ti    5.6763    1.8921    4.7573
 O    5.6763    1.8921    6.7372
 O    5.6763    3.7842   -4.3586
Ti    5.6763    3.7842   -2.3785
 O    5.6763    3.7842   -0.3986
 O    5.6763    3.7842    5.1558
Ti    5.6763    3.7842    7.1359
Ti    5.6763    5.6763   -4.7573
 O    5.6763    5.6763   -2.7772
 O    5.6763    5.6763    2.7772
Ti    5.6763    5.6763    4.7573
Ti    5.6763    7.5684   -2.3785
 O    5.6763    7.5684   -0.3986
 O    7.5684   -5.6763    0.3985
Ti    7.5684   -5.6763    2.3785
 O    7.5684   -3.7842   -1.9799
Ti    7.5684   -3.7842    0.0000
 O    7.5684   -3.7842    1.9799
 O    7.5684   -1.8921   -5.1559
 O    7.5684   -1.8921    0.3985
Ti    7.5684   -1.8921    2.3785
 O    7.5684   -1.8921    4.3586
 O    7.5684    0.0000   -1.9799
Ti    7.5684    0.0000    0.0000
 O    7.5684    0.0000    1.9799
 O    7.5684    1.8921   -5.1559
 O    7.5684    1.8921    0.3985
Ti    7.5684    1.8921    2.3785
 O    7.5684    1.8921    4.3586
 O    7.5684    3.7842   -1.9799
Ti    7.5684    3.7842    0.0000
 O    7.5684    3.7842    1.9799
 O    7.5684    5.6763    0.3985
Ti    7.5684    5.6763    2.3785
Ti    9.4605    0.0000   -2.3785
 O    9.4605    0.0000   -0.3986
